data_image0
_cell_length_a       0.496741329523
_cell_length_b       0.492306824176
_cell_length_c       0.495647002972
_cell_angle_alpha    90
_cell_angle_beta     94.5502
_cell_angle_gamma    90

_symmetry_space_group_name_H-M    "P 1"
_symmetry_int_tables_number       1

loop_
  _symmetry_equiv_pos_as_xyz
  'x, y, z'

loop_
_atom_site_label
_atom_site_type_symbol
_atom_site_fract_x
_atom_site_fract_y
_atom_site_fract_z
Zn1 Zn 0.2934 0.2066 0.2066
O1 O 0.25 0.25 0.25
O2 O 0.2819 0.2181 0.134
C1 C 0.25 0.25 0.1113
C2 C 0.25 0.25 0.0538
C3 C 0.2829 0.2171 0.0269
H1 H 0.3049 0.1951 0.0448
