data_grid

_audit_creation_method RASPA-1.0
_audit_creation_date 2021-9-21
_audit_author_name 'Benjamin Bolbrinker'

_cell_length_a    7.84851
_cell_length_b    5.11999
_cell_length_c    8.426
_cell_angle_alpha 90
_cell_angle_beta  94.5502
_cell_angle_gamma 90
_cell_volume      337.526

_symmetry_cell_setting          triclinic
_symmetry_space_group_name_Hall 'P 1'
_symmetry_space_group_name_H-M  'P 1'
_symmetry_Int_Tables_number     1

_symmetry_equiv_pos_as_xyz 'x,y,z'

loop_
_atom_site_label
_atom_site_type_symbol
_atom_site_fract_x
_atom_site_fract_y
_atom_site_fract_z
_atom_site_charge
Zn1      Zn     0.293400000000     0.206600000000     0.206600000000     0          
O1       O      0.250000000000     0.250000000000     0.250000000000     0          
O2       O      0.281900000000     0.218100000000     0.134000000000     0          
C1       C      0.250000000000     0.250000000000     0.111300000000     0          
C2       C      0.250000000000     0.250000000000     0.053800000000     0          
C3       C      0.282900000000     0.217100000000     0.026900000000     0          
H1       H      0.304900000000     0.195100000000     0.044800000000     0          


